test/test_files/validation_tests/case145_resqlim.m
function mpc = case145_resqlim
%CASE145_RESQLIM

%% MATPOWER Case Format : Version 2
mpc.version = '2';

%%-----  Power Flow Data  -----%%
%% system MVA base
mpc.baseMVA = 100;

%% bus data
%	bus_i	type	Pd	Qd	Gs	Bs	area	Vm	Va	baseKV	zone	Vmax	Vmin
mpc.bus = [
	1	1	0	0	0	0	2	1.08099838	-4.3217833	500	2	1.06	0.94;
	2	1	0	0	0	0	2	1.08085415	-4.38839193	500	2	1.06	0.94;
	3	1	0	0	0	-126	2	1.10153101	-4.02449338	25.7	2	1.06	0.94;
	4	1	0	0	0	-126	2	1.10153101	-4.02449338	25.7	2	1.06	0.94;
	5	1	0	0	0	-126	2	1.10181468	-4.0243014	25.7	2	1.06	0.94;
	6	1	0	0	0	0	2	1.04330157	-7.83698062	500	2	1.06	0.94;
	7	1	0	0	0	0	2	1.0763067	3.20977065	500	2	1.06	0.94;
	8	1	0	0	0	0	2	1.11365414	1.14839808	100	2	1.06	0.94;
	9	1	0	0	0	0	2	1.03959304	-8.05198489	500	2	1.06	0.94;
	10	1	0	0	0	0	2	1.03956988	-8.05278404	500	2	1.06	0.94;
	11	1	0	0	0	0	2	1.09367151	-10.6575174	100	2	1.06	0.94;
	12	1	0	0	0	0	2	1.03886633	-8.7697025	500	2	1.06	0.94;
	13	1	0	0	0	0	2	1.09818989	-11.4304389	100	2	1.06	0.94;
	14	1	0	0	0	0	2	1.03852574	-9.17764922	500	2	1.06	0.94;
	15	1	0	0	0	-126	2	1.06830578	-9.8114891	100	2	1.06	0.94;
	16	1	0	0	0	-126	2	1.06863894	-9.86490329	100	2	1.06	0.94;
	17	1	0	0	0	-250	2	1.0012365	-9.44119419	500	2	1.06	0.94;
	18	1	0	0	0	-126	2	1.07464649	-10.880559	100	2	1.06	0.94;
	19	1	0	0	0	-58	2	1.07082179	-10.9605303	100	2	1.06	0.94;
	20	1	0	0	0	0	2	1.11305755	-10.9592902	100	2	1.06	0.94;
	21	1	0	0	0	0	2	1.10855735	-11.2423455	100	2	1.06	0.94;
	22	1	0	0	0	0	2	1.03105346	-3.88442588	500	2	1.06	0.94;
	23	1	0	0	0	0	2	1.09786088	-5.50973506	100	2	1.06	0.94;
	24	1	0	0	0	0	2	1.02721646	2.30445891	500	2	1.06	0.94;
	25	1	0	0	0	0	2	1.03796209	-9.87106878	500	2	1.06	0.94;
	26	1	0	0	0	0	2	1.08943778	-11.3747855	100	2	1.06	0.94;
	27	1	0	0	0	0	2	1.03885381	-13.0739572	500	2	1.06	0.94;
	28	1	0	0	0	-126	2	1.07621423	-15.2793476	100	2	1.06	0.94;
	29	1	0	0	0	-126	2	1.07460973	-15.4421663	100	2	1.06	0.94;
	30	1	0	0	0	0	2	1.07307485	-5.35022812	100	2	1.06	0.94;
	31	1	0	0	0	0	2	1.09053451	-11.8141901	100	2	1.06	0.94;
	32	1	0	0	0	0	2	1.0937099	-10.665057	100	2	1.06	0.94;
	33	1	0	0	0	0	2	1.13924575	-4.06190937	220	2	1.06	0.94;
	34	1	45.05	46.56	0	0	2	1.13871196	-4.00257571	220	2	1.06	0.94;
	35	1	49.19	27.53	0	0	2	1.13900255	-4.08072894	220	2	1.06	0.94;
	36	1	0	0	0	0	2	1.13854247	-3.81526376	220	2	1.06	0.94;
	37	1	0	0	0	0	2	1.12351663	-6.23265312	220	2	1.06	0.94;
	38	1	0	0	0	0	2	1.13057745	-5.29305325	220	2	1.06	0.94;
	39	1	0	0	0	0	2	1.12696024	-7.91644762	220	2	1.06	0.94;
	40	1	0	0	0	0	2	1.12693959	-7.9205546	220	2	1.06	0.94;
	41	1	0	0	54	-10	2	1.11884159	-10.4321096	100	2	1.06	0.94;
	42	1	0	0	54.8	-10	2	1.11881461	-10.4463259	100	2	1.06	0.94;
	43	1	0	0	0	0	2	1.11894833	-10.4042392	220	2	1.06	0.94;
	44	1	0	0	0	0	2	1.1189211	-10.4182119	220	2	1.06	0.94;
	45	1	0	0	0	0	2	1.1172938	-11.4149836	220	2	1.06	0.94;
	46	1	0	0	0	0	2	1.1173004	-11.4099288	220	2	1.06	0.94;
	47	1	0	0	15.2	5.37	2	1.12753241	-6.72581346	100	2	1.06	0.94;
	48	1	0	0	13.8	5.2	2	1.12783424	-6.7063588	100	2	1.06	0.94;
	49	1	0	0	0	0	2	1.12790362	-6.69691532	220	2	1.06	0.94;
	50	1	0	0	0	0	2	1.12760921	-6.71577036	220	2	1.06	0.94;
	51	1	58.45	28.44	0	0	2	1.11240094	-10.1595742	220	2	1.06	0.94;
	52	1	0	0	23	-9.7	2	1.11178239	-11.1324695	100	2	1.06	0.94;
	53	1	0	0	23.2	-9.7	2	1.11178264	-11.1340043	100	2	1.06	0.94;
	54	1	0	0	18.8	-9.3	2	1.11311322	-11.7858807	100	2	1.06	0.94;
	55	1	0	0	18.7	-9.2	2	1.1131219	-11.7859082	100	2	1.06	0.94;
	56	1	0	0	18.6	-7.5	2	1.10715483	-9.94292405	100	2	1.06	0.94;
	57	1	0	0	18.8	-7	2	1.10720251	-9.94437118	100	2	1.06	0.94;
	58	1	76.3	-10.8	121	140	2	1.10665498	-9.76405178	100	2	1.06	0.94;
	59	1	0	0	508	8.63	2	1.11645568	-10.8433503	100	2	1.06	0.94;
	60	2	0	0	201	165	2	1.137	-6.36746169	100	2	1.06	0.94;
	61	1	0	0	0	149	2	1.11443083	-11.8909969	220	2	1.06	0.94;
	62	1	0	0	0	0	2	1.05660144	-14.4688897	100	2	1.06	0.94;
	63	1	0	0	823	525	2	1.11092123	-13.9799926	100	2	1.06	0.94;
	64	1	0	0	123	-26	2	1.09800183	-9.28790208	100	2	1.06	0.94;
	65	1	0	0	124	-26	2	1.09797669	-9.28968977	100	2	1.06	0.94;
	66	1	102.2	26.7	216	1897	2	1.11288944	1.31765799	100	2	1.06	0.94;
	67	2	0	0	1821	1280	2	1.09	-5.65771797	100	2	1.06	0.94;
	68	1	0	-7.41	56.3	-25	2	1.20859802	-30.9857332	100	2	1.06	0.94;
	69	1	0	0	971	-144	2	1.0967547	-10.4170087	100	2	1.06	0.94;
	70	1	0	56.63	103	-86	2	0.999830083	-14.1671415	100	2	1.06	0.94;
	71	1	0	-21.2	106	-122	2	1.02748401	-14.2607435	100	2	1.06	0.94;
	72	1	0	0	1019	24.6	2	1.10072445	-11.1946328	100	2	1.06	0.94;
	73	1	0	0	1222	841	2	1.09752372	-11.0600114	100	2	1.06	0.94;
	74	1	81.9	43.7	857	574	2	1.09726711	-11.4612355	100	2	1.06	0.94;
	75	1	0	0	387	199	2	1.11787253	-15.1878263	100	2	1.06	0.94;
	76	1	0	0	-667	-185	2	1.02087845	5.53593961	100	2	1.06	0.94;
	77	1	0	0	0	-125	2	0.987963505	6.72103724	100	2	1.06	0.94;
	78	1	89	26.8	0	0	2	1.07398021	-5.1889401	100	2	1.06	0.94;
	79	2	9.1	3	238	27.1	2	1.052	-9.51091038	100	2	1.06	0.94;
	80	2	17.1	5	-0.08	29.9	2	1.069	-8.21065475	100	2	1.06	0.94;
	81	1	82.2	-93.1	70	-47	2	1.13038958	-25.8650828	100	2	1.06	0.94;
	82	2	2.1	1.1	111	-28	2	0.975	-18.6636642	100	2	1.06	0.94;
	83	1	0	0	105	-0.42	2	1.098487	-5.38116332	100	2	1.06	0.94;
	84	1	24.3	8.2	0	0	2	1.11557887	-9.43946039	100	2	1.06	0.94;
	85	1	27.4	0.3	0	0	2	1.11649416	-13.0461834	100	2	1.06	0.94;
	86	1	0	0	292	-22	2	1.05669069	-14.0098159	100	2	1.06	0.94;
	87	1	0	0	37.7	-47	2	1.0651519	-7.17181758	100	2	1.06	0.94;
	88	1	69	20.9	0	0	2	1.10942096	-8.34534448	100	2	1.06	0.94;
	89	2	0.6	0.2	678	71.1	2	1.066	3.68345992	100	2	1.06	0.94;
	90	2	4.6	1.5	29.5	-19	2	0.95	-7.35446146	100	2	1.06	0.94;
	91	2	0	0	19.3	-27	2	1	-9.27684446	100	2	1.06	0.94;
	92	1	0	31.02	43.4	-43	2	0.956120497	-12.7522448	100	2	1.06	0.94;
	93	2	100.4	73.2	0	0	2	1	-1.91863649	18.5	2	1.06	0.94;
	94	2	15.4	7.6	140	-141	2	1.02	-0.742367809	100	2	1.06	0.94;
	95	2	6.7	2.2	27.2	-58	2	0.92	18.8814841	100	2	1.06	0.94;
	96	2	0	0	47.8	-45	2	1	-8.97721027	100	2	1.06	0.94;
	97	2	0	0	129	-177	2	0.967	-4.34483496	100	2	1.06	0.94;
	98	2	0	0	82.1	-121	2	0.97	5.18598276	100	2	1.06	0.94;
	99	2	10.46	5.23	0	0	2	1	1.09717007	18	2	1.06	0.94;
	100	2	0	0	59.1	-101	2	1.014	0.702153829	100	2	1.06	0.94;
	101	2	17.8	4.5	64.7	-238	2	1.039	-6.09002649	100	2	1.06	0.94;
	102	2	37.6	9.2	458	-619	2	1.019	-4.76425242	100	2	1.06	0.94;
	103	2	0	0	62.4	-45	2	1	1.51327666	100	2	1.06	0.94;
	104	1	30.2	7.6	0	0	2	1.00591192	13.6759127	100	2	1.06	0.94;
	105	2	96	167.4	24.2	-999	2	1.007	-2.79540139	100	2	1.06	0.94;
	106	2	64	16	36.9	-719	2	1.005	-2.7500654	100	2	1.06	0.94;
	107	1	-17.5	-12.8	28.8	-22	2	1.02107699	-13.5747325	100	2	1.06	0.94;
	108	2	0	0	520	-244	2	1.014	-14.0310757	100	2	1.06	0.94;
	109	2	0	0	84.5	-47	2	0.915	-18.4555107	100	2	1.06	0.94;
	110	2	100.4	73.2	0	0	2	1	-1.30760677	18.5	2	1.06	0.94;
	111	2	60.4	1166	23.3	-999	2	1	7.97088515	100	2	1.06	0.94;
	112	2	18.6	4.6	64.3	-236	2	1.037	-6.26453673	100	2	1.06	0.94;
	113	1	0	0	0	0	2	0.977971543	-4.38839193	24	2	1.06	0.94;
	114	1	0	0	0	0	2	0.977971543	-4.38839193	24	2	1.06	0.94;
	115	2	683.5	184.7	2856	9.41	1	1.049	-15.6106914	100	1	1.06	0.94;
	116	2	792.6	315.5	1930	-195	1	1.043	-16.8619647	100	1	1.06	0.94;
	117	2	485.3	71.4	2410	-54	2	1.03	-15.3237537	100	2	1.06	0.94;
	118	2	651.9	328.4	4788	-979	2	1.01	-17.7933154	100	2	1.06	0.94;
	119	2	2094	3774	9999	-999	2	1.013	-59.4121418	100	2	1.06	0.94;
	120	1	-408	175.1	2026	855	2	1.03310567	-51.6049845	100	2	1.06	0.94;
	121	2	237.7	-17.3	306	1055	2	1.046	-20.1963637	100	2	1.06	0.94;
	122	2	29.2	7	397	-61	2	1	-2.78944458	100	2	1.06	0.94;
	123	1	-84	-19	118	1.4	2	1.01711499	-33.1226377	100	2	1.06	0.94;
	124	2	94.1	780.3	766	-999	2	1	-1.88583517	100	2	1.06	0.94;
	125	1	-712	-319	2831	-71	2	1.00838195	-32.5945172	100	2	1.06	0.94;
	126	1	-333	-160	1604	347	2	1.05238241	-73.9001179	100	2	1.06	0.94;
	127	1	-546	-72	305	-51	2	1.00696198	-36.3996347	100	2	1.06	0.94;
	128	2	4075	703.5	5252	-472	2	1.025	-39.7059346	100	2	1.06	0.94;
	129	1	-482	-122	3855	387	2	0.980186545	-73.0735018	100	2	1.06	0.94;
	130	2	4328	944.3	3830	-91	1	1.057	-51.8652557	100	1	1.06	0.94;
	131	2	21840	4320	5145	-780	1	1.042	-24.3167766	100	1	1.06	0.94;
	132	2	491.9	110.2	1239	-226	1	1.042	-7.24163815	100	1	1.06	0.94;
	133	1	-83	-36.3	103	-5.9	2	1.09221932	-11.5989092	100	2	1.06	0.94;
	134	2	22309	7402	-141	-78	1	1.044	-10.8208295	100	1	1.06	0.94;
	135	2	4298	1264	-999	835	1	1.107	29.044505	100	1	1.06	0.94;
	136	2	52951	13552	-999	375	1	1.083	4.38771417	100	1	1.06	0.94;
	137	2	12946	2608	499	-219	1	1.064	-72.7313287	100	1	1.06	0.94;
	138	1	-363	-188	433	-81	2	1.11379201	12.0109973	100	2	1.06	0.94;
	139	2	57718	13936	1609	-999	1	1.04	-10.5569244	100	1	1.06	0.94;
	140	2	24775	6676	-289	-77	1	1.05	-26.1637652	100	1	1.06	0.94;
	141	2	32799	11361	5212	-999	1	1.053	-9.12030005	100	1	1.06	0.94;
	142	2	17737	3934	4323	2210	1	1.155	-10.7319186	100	1	1.06	0.94;
	143	2	4672	1709	586	-999	1	1.031	-13.6639624	100	1	1.06	0.94;
	144	2	9602	2203	-436	-999	1	0.997	-8.57724862	100	1	1.06	0.94;
	145	3	9173	1555	-999	457	1	1.052	5.02	100	1	1.06	0.94;
];

%% generator data
%	bus	Pg	Qg	Qmax	Qmin	Vg	mBase	status	Pmax	Pmin	Pc1	Pc2	Qc1min	Qc1max	Qc2min	Qc2max	ramp_agc	ramp_10	ramp_30	ramp_q	apf
mpc.gen = [
	60	51	32.9174987	53.4	-20.4	1.137	100	1	151	0	0	0	0	0	0	0	0	0	0	0	0;
	67	1486	285.19454	891.6	-594	1.09	100	1	1586	0	0	0	0	0	0	0	0	0	0	0	0;
	79	250.2	-15.9506324	150.1	-100	1.052	100	1	350.2	0	0	0	0	0	0	0	0	0	0	0	0;
	80	47	-15.0650623	28.2	-18.8	1.069	100	1	147	0	0	0	0	0	0	0	0	0	0	0	0;
	82	70	17.1537625	42	-28	0.975	100	1	170	0	0	0	0	0	0	0	0	0	0	0	0;
	89	673	136.392039	403.8	-269	1.066	100	1	773	0	0	0	0	0	0	0	0	0	0	0	0;
	90	22	-3.86513056	13.2	-8.8	0.95	100	1	122	0	0	0	0	0	0	0	0	0	0	0	0;
	91	64	-1.53912023	38.4	-25.6	1	100	1	164	0	0	0	0	0	0	0	0	0	0	0	0;
	93	700	373.805184	766	-520	1	100	1	800	0	0	0	0	0	0	0	0	0	0	0	0;
	94	300	19.0533915	288	-192	1.02	100	1	400	0	0	0	0	0	0	0	0	0	0	0	0;
	95	131	10.1219287	108.6	-72.4	0.92	100	1	231	0	0	0	0	0	0	0	0	0	0	0	0;
	96	60	21.1087303	36	-24	1	100	1	160	0	0	0	0	0	0	0	0	0	0	0	0;
	97	140	45.6262912	84	-56	0.967	100	1	240	0	0	0	0	0	0	0	0	0	0	0	0;
	98	426	-32.7251867	255.6	-170	0.97	100	1	526	0	0	0	0	0	0	0	0	0	0	0	0;
	99	200	-8.34178598	110	-110	1	100	1	300	0	0	0	0	0	0	0	0	0	0	0	0;
	100	170	58.7168184	102	-68	1.014	100	1	270	0	0	0	0	0	0	0	0	0	0	0	0;
	101	310.9	148.658828	186.5	-124	1.039	100	1	410.9	0	0	0	0	0	0	0	0	0	0	0	0;
	102	2040	488.896382	640	0	1.019	100	1	2140	0	0	0	0	0	0	0	0	0	0	0	0;
	103	135	4.95774672	81	-54	1	100	1	235	0	0	0	0	0	0	0	0	0	0	0	0;
	104	2000	500	500	0	1.045	100	1	2100	0	0	0	0	0	0	0	0	0	0	0	0;
	105	1620	388.342015	1008	0	1.007	100	1	1720	0	0	0	0	0	0	0	0	0	0	0	0;
	106	1080	209.359216	671	0	1.005	100	1	1180	0	0	0	0	0	0	0	0	0	0	0	0;
	108	800	77.2843961	480	-320	1.014	100	1	900	0	0	0	0	0	0	0	0	0	0	0	0;
	109	52	-15.5513832	31.2	-20.8	0.915	100	1	152	0	0	0	0	0	0	0	0	0	0	0	0;
	110	700	519.829165	766	0	1	100	1	800	0	0	0	0	0	0	0	0	0	0	0	0;
	111	2000	563.71787	1000	0	1	100	1	2100	0	0	0	0	0	0	0	0	0	0	0	0;
	112	300	140.108683	160	0	1.037	100	1	400	0	0	0	0	0	0	0	0	0	0	0	0;
	115	2493	142.729636	1496	-997	1.049	100	1	2593	0	0	0	0	0	0	0	0	0	0	0	0;
	116	2713	631.837347	1628	-1085	1.043	100	1	2813	0	0	0	0	0	0	0	0	0	0	0	0;
	117	2627	258.549267	1576	-1051	1.03	100	1	2727	0	0	0	0	0	0	0	0	0	0	0	0;
	118	4220	660.367146	2532	-1688	1.01	100	1	4320	0	0	0	0	0	0	0	0	0	0	0	0;
	119	8954	4748.49782	5373	-3582	1.013	100	1	9054	0	0	0	0	0	0	0	0	0	0	0	0;
	121	2997	-160.210959	1798	-1199	1.046	100	1	3097	0	0	0	0	0	0	0	0	0	0	0	0;
	122	1009	174.042739	605.4	-404	1	100	1	1109	0	0	0	0	0	0	0	0	0	0	0	0;
	124	3005	569.194995	1803	-1202	1	100	1	3105	0	0	0	0	0	0	0	0	0	0	0	0;
	128	12963	2610.82371	7778	-5185	1.025	100	1	13063	0	0	0	0	0	0	0	0	0	0	0	0;
	130	5937	1834.95871	3562	-2375	1.057	100	1	6037	0	0	0	0	0	0	0	0	0	0	0	0;
	131	28300	7473.05912	16980	-9999	1.042	100	1	28400	0	0	0	0	0	0	0	0	0	0	0	0;
	132	3095	633.420764	1857	-1238	1.042	100	1	3195	0	0	0	0	0	0	0	0	0	0	0	0;
	134	20626	7402.14728	12375	-8250	1.044	100	1	20726	0	0	0	0	0	0	0	0	0	0	0	0;
	135	5982	1564.84103	3589	-2393	1.107	100	1	6082	0	0	0	0	0	0	0	0	0	0	0	0;
	136	51950	14453.5005	31170	-9999	1.083	100	1	52050	0	0	0	0	0	0	0	0	0	0	0	0;
	137	12068	3450.75667	7241	-4827	1.064	100	1	12168	0	0	0	0	0	0	0	0	0	0	0	0;
	139	56834	15849.6572	34100	-9999	1.04	100	1	56934	0	0	0	0	0	0	0	0	0	0	0	0;
	140	23123	6710.4733	13874	-9249	1.05	100	1	23223	0	0	0	0	0	0	0	0	0	0	0	0;
	141	37911	11669.5053	22747	-9999	1.053	100	1	38011	0	0	0	0	0	0	0	0	0	0	0	0;
	142	24449	5496.14062	14670	-9780	1.155	100	1	24549	0	0	0	0	0	0	0	0	0	0	0	0;
	143	5254	2158.62313	3152	-2101	1.031	100	1	5354	0	0	0	0	0	0	0	0	0	0	0	0;
	144	11397	2686.8471	6838	-4559	0.997	100	1	11497	0	0	0	0	0	0	0	0	0	0	0	0;
	145	14118.6399	2987.15406	9999	-9999	1.052	100	1	14218.62	0	0	0	0	0	0	0	0	0	0	0	0;
];

%% branch data
%	fbus	tbus	r	x	b	rateA	rateB	rateC	ratio	angle	status	angmin	angmax	Pf	Qf	Pt	Qt
mpc.branch = [
	1	2	3e-05	0.0008	0.0632	8659	0	0	0	0	1	-360	360	170.2842	9.5102	-170.2768	-16.6948;
	1	2	3e-05	0.0008	0.0632	0	0	0	0	0	1	-360	360	170.2842	9.5102	-170.2768	-16.6948;
	1	3	-0.009	-0.1718	0	0	0	0	0.935	0	1	-360	360	1.9150	-36.8654	-2.0068	35.1140;
	1	4	-0.009	-0.1718	0	0	0	0	0.935	0	1	-360	360	1.9150	-36.8654	-2.0068	35.1140;
	1	5	-0.0089	-0.1697	0	0	0	0	0.935	0	1	-360	360	1.9502	-37.1291	-2.0422	35.3741;
	1	6	0.00194	0.0209	2.3792	8659	0	0	0	0	1	-360	360	346.9109	33.9167	-344.4165	-275.5407;
	1	33	0.0001	0.006	0	750	0	0	0.935	0	1	-360	360	-94.1095	327.4861	94.1964	-322.2745;
	1	93	0.0002	0.0138	0	0	0	0	1.1036	0	1	-360	360	-299.5751	-134.7816	299.8000	150.3026;
	1	93	0.0002	0.0138	0	0	0	0	1.1036	0	1	-360	360	-299.5751	-134.7816	299.8000	150.3026;
	2	6	0.00194	0.0209	2.3792	8659	0	0	0	0	1	-360	360	340.5535	33.3896	-338.1342	-275.7862;
	2	113	0	0.0148	0	0	0	0	1.1052	0	1	-360	360	0.0000	0.0000	-0.0000	0.0000;
	2	114	0.00018	0.0145	0	0	0	0	1.1052	0	1	-360	360	0.0000	-0.0000	0.0000	0.0000;
	3	33	0.0002	0.0221	0	0	0	0	0	0	1	-360	360	2.0068	-187.9987	-1.9485	194.4368;
	4	33	0.0002	0.0221	0	0	0	0	0	0	1	-360	360	2.0068	-187.9987	-1.9485	194.4368;
	5	33	0.0002	0.0219	0	0	0	0	0	0	1	-360	360	2.0422	-188.3375	-1.9838	194.7371;
	6	7	0.00129	0.0139	1.4652	8659	0	0	0	0	1	-360	360	-1543.7250	-34.5188	1571.9922	174.4941;
	6	9	0.00016	0.0017	0.1752	8659	0	0	0	0	1	-360	360	258.5854	194.1721	-258.4262	-211.4822;
	6	10	0.00016	0.0017	0.1752	8659	0	0	0	0	1	-360	360	259.5951	195.5016	-259.4342	-212.7946;
	6	12	0.0002	0.0021	0.8776	8659	0	0	0	0	1	-360	360	854.0476	98.0860	-852.6683	-178.7229;
	6	12	0.0002	0.0021	0.8776	8659	0	0	0	0	1	-360	360	854.0476	98.0860	-852.6683	-178.7229;
	7	8	-0.0112	-0.1516	0	0	0	0	0.9716	0	1	-360	360	-28.8349	5.9053	28.7558	-6.9755;
	7	66	0.00015	0.0097	0	750	0	0	0.9716	0	1	-360	360	418.7399	-58.0422	-418.5214	72.1685;
	7	104	0.00036	0.019	0	0	0	0	1.1052	0	1	-360	360	-937.7369	-60.7510	941.0888	237.6577;
	7	104	0.00041	0.0174	0	0	0	0	1.1052	0	1	-360	360	-1024.1603	-61.6063	1028.7112	254.7423;
	8	66	0.0002	0.0299	0	0	0	0	0	0	1	-360	360	-12.2254	2.9480	12.2256	-2.9099;
	8	66	0.0002	0.0221	0	0	0	0	0	0	1	-360	360	-16.5304	4.0275	16.5309	-3.9759;
	9	11	-0.0217	-0.3062	0	0	0	0	0.9166	0	1	-360	360	-19.4114	-14.0492	19.3145	12.6825;
	9	69	0.0004	0.0188	0	750	0	0	0.9166	0	1	-360	360	277.8376	225.5314	-277.4394	-206.8160;
	10	32	-0.027	-0.3041	0	0	0	0	0.9166	0	1	-360	360	-19.8120	-13.7505	19.6899	12.3755;
	10	69	0.0004	0.0187	0	750	0	0	0.9166	0	1	-360	360	279.2462	226.5451	-278.8441	-207.7477;
	11	69	0.0002	0.0262	0	0	0	0	0	0	1	-360	360	-19.3145	-12.6825	19.3154	12.7994;
	12	13	-0.0223	-0.3099	0	0	0	0	0.9166	0	1	-360	360	-19.5014	-11.9038	19.4108	10.6445;
	12	13	-0.0237	-0.316	0	0	0	0	0.9166	0	1	-360	360	-19.1559	-11.6135	19.0634	10.3790;
	12	13	-0.0237	-0.316	0	0	0	0	0.9166	0	1	-360	360	-19.1559	-11.6135	19.0634	10.3790;
	12	14	0.00096	0.0091	0.8556	8659	0	0	0	0	1	-360	360	83.9216	-50.8346	-83.8587	-40.8795;
	12	14	0.00096	0.0091	0.8556	8659	0	0	0	0	1	-360	360	83.9216	-50.8346	-83.8587	-40.8795;
	12	25	0.00051	0.0055	0.625	8659	0	0	0	0	1	-360	360	375.5340	-47.8469	-374.8666	-12.3501;
	12	25	0.00051	0.0055	0.625	8659	0	0	0	0	1	-360	360	375.5340	-47.8469	-374.8666	-12.3501;
	12	72	0.0003	0.0189	0	750	0	0	0.9166	0	1	-360	360	282.4145	197.3231	-282.1373	-179.8595;
	12	72	0.0003	0.019	0	750	0	0	0.9166	0	1	-360	360	280.9121	196.3083	-280.6378	-178.9366;
	12	72	0.0003	0.019	0	0	0	0	0.9166	0	1	-360	360	280.9121	196.3083	-280.6378	-178.9366;
	13	72	0.0002	0.026	0	0	0	0	0	0	1	-360	360	-19.2153	-10.5183	19.2161	10.6218;
	13	72	0.0003	0.0262	0	0	0	0	0	0	1	-360	360	-19.1070	-10.3659	19.1082	10.4686;
	13	72	0.0002	0.026	0	0	0	0	0	0	1	-360	360	-19.2153	-10.5183	19.2161	10.6218;
	14	15	-0.0415	-0.3996	0	0	0	0	0.9164	0	1	-360	360	-5.2106	-17.9004	5.0983	16.8189;
	14	16	-0.01	-0.1669	0	0	0	0	0.9164	0	1	-360	360	-11.2953	-43.2584	11.1397	40.6608;
	14	17	0.00339	0.0367	3.4582	8659	0	0	0	0	1	-360	360	22.5892	-83.0262	-22.2367	-272.9851;
	14	17	0.00352	0.0367	3.4516	8659	0	0	0	0	1	-360	360	22.9447	-82.7844	-22.5790	-272.5427;
	14	58	0.0002	0.0097	0	750	0	0	0.9164	0	1	-360	360	138.6894	308.7284	-138.5111	-300.0769;
	15	58	0.0002	0.0255	0	0	0	0	0	0	1	-360	360	-5.0983	-160.6199	5.1436	166.3900;
	16	58	0.0002	0.022	0	0	0	0	0	0	1	-360	360	-11.1397	-184.5514	11.1995	191.1367;
	17	18	-0.3181	-1.315	0	0	0	0	0.8708	0	1	-360	360	-3.7380	-5.6956	3.6264	5.2340;
	17	19	0	-0.847	0	0	0	0	0.8634	0	1	-360	360	-3.8872	-12.2123	3.8872	11.1778;
	17	20	0	-0.8676	0	0	0	0	0.8634	0	1	-360	360	-3.9414	-6.2790	3.9414	5.9244;
	17	21	-0.0095	-0.1615	0	0	0	0	0.8708	0	1	-360	360	-26.4643	-28.1880	26.3569	26.3618;
	17	22	0.00228	0.0276	2.6204	8659	0	0	0	0	1	-360	360	-367.1603	-191.6029	370.3089	-40.9104;
	17	59	0.0001	0.0071	0	750	0	0	0.8708	0	1	-360	360	450.0069	538.8870	-449.6341	-512.4151;
	18	59	0.0002	0.0298	0	0	0	0	0	0	1	-360	360	-3.6264	-150.7470	3.6657	156.6142;
	19	59	0	0.0629	0	0	0	0	0	0	1	-360	360	-3.8872	-77.6840	3.8872	81.0027;
	20	59	0	0.0638	0	0	0	0	0	0	1	-360	360	-3.9414	-5.9244	3.9414	5.9505;
	21	59	0.0002	0.0329	0	0	0	0	0	0	1	-360	360	-26.3569	-26.3618	26.3591	26.7338;
	22	23	0	-0.3787	0	0	0	0	0.9322	0	1	-360	360	-9.0945	-2.5188	9.0945	2.2431;
	22	24	0.00173	0.0208	1.9648	8659	0	0	0	0	1	-360	360	-541.1461	-10.7313	546.0545	-138.3503;
	22	30	0	-0.3066	0	0	0	0	0.9532	0	1	-360	360	-9.6841	-3.1583	9.6841	2.8864;
	22	78	0	0.0268	0	0	0	0	0.9532	0	1	-360	360	98.6841	32.1840	-98.6841	-29.7161;
	22	83	0	0.0349	0	0	0	0	0.9322	0	1	-360	360	90.9317	25.1347	-90.9317	-22.5955;
	23	83	0.0004	0.0595	0	0	0	0	0	0	1	-360	360	-4.5558	-1.1196	4.5559	1.1304;
	23	83	0.0003	0.0597	0	0	0	0	0	0	1	-360	360	-4.5387	-1.1235	4.5387	1.1343;
	24	76	0.0002	0.0088	0	0	0	0	0.9898	0	1	-360	360	-673.3447	234.0300	674.2884	-192.5101;
	24	77	-0.0023	-0.0603	0	0	0	0	0.9898	0	1	-360	360	127.2902	-95.6797	-127.8317	81.4828;
	25	26	-0.006	-0.1375	0	0	0	0	0.9166	0	1	-360	360	-25.0547	-34.6018	24.9693	32.6449;
	25	27	0.0023	0.0266	3.0508	8659	0	0	0	0	1	-360	360	225.0531	-180.9482	-223.9660	-135.4436;
	25	27	0.0023	0.0266	3.0508	8659	0	0	0	0	1	-360	360	225.0531	-180.9482	-223.9660	-135.4436;
	25	31	-0.0082	-0.1648	0	0	0	0	0.9166	0	1	-360	360	-26.7951	-27.8682	26.6995	25.9474;
	25	73	0.0003	0.0172	0	750	0	0	0.9166	0	1	-360	360	153.9177	228.5182	-153.7401	-218.3362;
	25	74	0.0004	0.0179	0	750	0	0	0.9166	0	1	-360	360	197.5590	220.5485	-197.2856	-208.3106;
	26	73	0.0003	0.0267	0	0	0	0	0	0	1	-360	360	-24.9693	-32.6449	24.9736	33.0249;
	27	28	-0.1153	-0.7453	0	0	0	0	0.9074	0	1	-360	360	-7.8250	-9.4580	7.6924	8.6012;
	27	29	-0.0163	-0.2618	0	0	0	0	0.9074	0	1	-360	360	-21.2738	-29.8015	21.1070	27.1236;
	27	75	0.00016	0.01	0	750	0	0	0.9074	0	1	-360	360	477.0307	310.1468	-476.6355	-285.4468;
	28	75	0.0002	0.029	0	0	0	0	0	0	1	-360	360	-7.6924	-154.5391	7.7338	160.5336;
	29	75	0.0002	0.0269	0	0	0	0	0	0	1	-360	360	-21.1070	-172.6267	21.1594	179.6722;
	30	78	0	0.0335	0	0	0	0	0	0	1	-360	360	-9.6841	-2.8864	9.6841	2.9161;
	31	74	0.0003	0.0279	0	0	0	0	0	0	1	-360	360	-26.6995	-25.9474	26.7030	26.2726;
	32	69	0.0002	0.0265	0	0	0	0	0	0	1	-360	360	-19.6899	-12.3755	19.6908	12.4953;
	33	34	6e-05	0.0009	0.0006	788	0	0	0	0	1	-360	360	-144.1180	77.2145	144.1303	-77.1070;
	33	35	6e-05	0.0009	0.0006	490	0	0	0	0	1	-360	360	49.1915	27.4742	-49.1900	-27.5300;
	33	37	0.00996	0.0707	0.1116	0	0	0	0	0	1	-360	360	70.9201	9.4116	-70.5129	-20.8064;
	33	38	0.00995	0.0693	0.111	1155	0	0	0	0	1	-360	360	41.1919	1.5616	-41.0560	-14.9119;
	33	39	0.0085	0.0699	0.1006	1208	0	0	0	0	1	-360	360	124.5708	2.5016	-123.5491	-7.0169;
	33	40	0.00849	0.0698	0.1004	1208	0	0	0	0	1	-360	360	124.8815	2.5501	-123.8560	-7.0094;
	33	49	0.0056	0.0493	0.0778	1078	0	0	0	0	1	-360	360	121.5472	10.1104	-120.8998	-14.4088;
	33	50	0.0056	0.0493	0.0778	1078	0	0	0	0	1	-360	360	122.4426	10.7279	-121.7850	-14.9334;
	33	110	0.00024	0.0157	0	0	0	0	1.18	0	1	-360	360	-298.5683	-200.7183	298.9016	222.5188;
	33	110	0.00023	0.0156	0	0	0	0	1.18	0	1	-360	360	-300.3749	-202.1697	300.6984	224.1103;
	34	36	0.00025	0.0022	0.0006	788	0	0	0	0	1	-360	360	-189.1803	30.5470	189.2511	-30.0017;
	36	99	0.0008	0.0455	0	0	0	0	1.1291	0	1	-360	360	-189.2511	30.0017	189.5400	-13.5718;
	37	87	0.00093	0.0442	0	0	0	0	1.05	0	1	-360	360	42.5010	11.2270	-42.4854	-10.4810;
	37	88	0.0031	0.1651	0	0	0	0	0	0	1	-360	360	28.0118	9.5794	-27.9903	-8.4331;
	38	88	0.0031	0.1638	0	0	0	0	0	0	1	-360	360	41.0560	14.9119	-41.0097	-12.4669;
	39	43	0.00602	0.0495	0.0712	1208	0	0	0	0	1	-360	360	111.4400	2.5674	-110.8490	-6.6862;
	39	84	0.00722	0.2786	0	0	0	0	0	0	1	-360	360	12.1091	4.4495	-12.0997	-4.0844;
	40	44	0.00603	0.0496	0.0714	1208	0	0	0	0	1	-360	360	111.6459	2.5266	-111.0517	-6.6424;
	40	84	0.00729	0.2756	0	0	0	0	0	0	1	-360	360	12.2100	4.4828	-12.2003	-4.1156;
	41	42	0.0005	0.1514	0	0	0	0	0	0	1	-360	360	0.2052	0.0193	-0.2052	-0.0192;
	41	43	1e-05	0.0009	0.0006	0	0	0	0	0	1	-360	360	-67.8028	-12.5373	67.8031	12.4964;
	42	44	1e-05	0.0009	0.0006	0	0	0	0	0	1	-360	360	-68.3905	-12.4982	68.3909	12.4579;
	43	46	0.00618	0.0508	0.0732	1208	0	0	0	0	1	-360	360	43.0458	-5.8102	-42.9543	-2.5888;
	44	45	0.00618	0.0508	0.0732	1208	0	0	0	0	1	-360	360	42.6609	-5.8154	-42.5710	-2.5967;
	45	61	0.00445	0.0366	0.0526	1208	0	0	0	0	1	-360	360	28.9133	2.0587	-28.8825	-8.3547;
	45	85	0	0.26	0	0	0	0	0	0	1	-360	360	13.6577	0.5381	-13.6577	-0.1490;
	46	61	0.00445	0.0366	0.0526	1208	0	0	0	0	1	-360	360	29.2119	2.0450	-29.1805	-8.3361;
	46	85	0	0.2592	0	0	0	0	0	0	1	-360	360	13.7423	0.5438	-13.7423	-0.1510;
	47	48	-0.01	0.2306	0	0	0	0	0	0	1	-360	360	-0.1805	-0.1554	0.1805	0.1555;
	47	50	1e-05	0.0009	0.0006	0	0	0	0	0	1	-360	360	-24.8661	-9.3810	24.8661	9.3097;
	47	87	0.0831	0.401	0	0	0	0	0	0	1	-360	360	5.7224	16.3634	-5.5259	-15.4155;
	48	49	1e-05	0.0009	0.0006	0	0	0	0	0	1	-360	360	-23.3898	-8.4701	23.3899	8.3981;
	48	87	0.0998	0.436	0	0	0	0	0	0	1	-360	360	5.6556	14.9291	-5.4556	-14.0555;
	49	51	0.00898	0.079	0.1248	1078	0	0	0	0	1	-360	360	97.5100	6.0107	-96.8251	-15.6453;
	50	51	0.00898	0.079	0.1248	1078	0	0	0	0	1	-360	360	96.9189	5.6238	-96.2425	-15.3292;
	51	52	0.0029	0.0279	0.0466	858	0	0	0	0	1	-360	360	74.7810	-7.5509	-74.6494	3.0534;
	51	53	0.0029	0.0279	0.0466	858	0	0	0	0	1	-360	360	74.8985	-7.5621	-74.7665	3.0686;
	51	56	0.00759	0.0483	0.0712	1093	0	0	0	0	1	-360	360	-7.5537	8.8823	7.5681	-17.5602;
	51	57	0.00759	0.0483	0.0712	1093	0	0	0	0	1	-360	360	-7.5082	8.7651	7.5223	-17.4449;
	52	53	-0.0067	0.3911	0	0	0	0	0	0	1	-360	360	0.0085	0.0001	-0.0085	-0.0001;
	52	54	0.0047	0.0293	0.0462	0	0	0	0	0	1	-360	360	46.2115	-15.0433	-46.1247	9.8672;
	53	55	0.0047	0.0293	0.0462	0	0	0	0	0	1	-360	360	46.0984	-15.0583	-46.0119	9.8799;
	54	55	-0.0553	0.9289	0	0	0	0	0	0	1	-360	360	0.0001	-0.0010	-0.0001	0.0010;
	54	61	0.00141	0.0087	0.0138	390	0	0	0	0	1	-360	360	22.8310	-21.3891	-22.8202	19.7434;
	55	61	0.00141	0.0087	0.0138	390	0	0	0	0	1	-360	360	22.8420	-21.2801	-22.8313	19.6341;
	56	57	-0.009	0.3895	0	0	0	0	0	0	1	-360	360	0.0083	-0.0134	-0.0083	0.0134;
	56	58	0.0019	0.012	0.0178	0	0	0	0	0	1	-360	360	-30.3761	8.3802	30.3917	-10.4620;
	57	58	0.0019	0.012	0.0178	0	0	0	0	0	1	-360	360	-30.5609	8.8502	30.5769	-10.9302;
	58	59	0.6674	2.2175	0	0	0	0	0	0	1	-360	360	0.8301	-0.7291	-0.8234	0.7512;
	58	72	0.0302	0.2364	0	0	0	0	0	0	1	-360	360	13.0269	1.2727	-12.9847	-0.9420;
	58	87	0.0863	0.3906	0	0	0	0	0	0	1	-360	360	-10.4714	14.3811	10.6944	-13.3718;
	58	98	0.0131	0.1765	0	0	0	0	0	0	1	-360	360	-148.1950	117.2684	152.0152	-65.7984;
	58	100	0.1193	1.269	0	0	0	0	0	0	1	-360	360	-15.0326	10.9646	15.3698	-7.3773;
	58	103	0.8416	5.5383	0	0	0	0	0	0	1	-360	360	-3.4456	3.0406	3.5907	-2.0856;
	59	60	-0.1803	5.9659	0	0	0	0	0	0	1	-360	360	-1.6493	-0.3694	1.6452	0.5062;
	59	72	0.8613	3.0485	0	0	0	0	0	0	1	-360	360	0.3798	0.4696	-0.3773	-0.4607;
	59	79	0.0099	0.2644	0	0	0	0	0	0	1	-360	360	-9.2929	27.6851	9.3607	-25.8761;
	59	80	0.2876	2.3898	0	0	0	0	0	0	1	-360	360	-1.9919	2.5094	2.0156	-2.3126;
	59	89	0.3421	9.0571	0	0	0	0	0	0	1	-360	360	-3.2521	1.1649	3.2848	-0.2978;
	59	92	-0.007	0.5678	0	0	0	0	0	0	1	-360	360	5.8715	31.7032	-5.9299	-26.9677;
	59	94	0.7041	5.9885	0	0	0	0	0	0	1	-360	360	-3.0469	2.4512	3.1333	-1.7165;
	59	98	0.106	0.5845	0	0	0	0	0	0	1	-360	360	-43.3558	43.0408	46.5297	-25.5395;
	59	100	0.0183	0.2016	0	0	0	0	0	0	1	-360	360	-105.3423	77.6644	107.8570	-49.9610;
	59	103	0.0368	0.3341	0	0	0	0	0	0	1	-360	360	-65.5759	53.8799	67.7026	-34.5726;
	59	107	0.0372	0.8834	0	0	0	0	0	0	1	-360	360	6.6515	11.9206	-6.5958	-10.6000;
	60	135	-1.831	9.7964	0	0	0	0	0	0	1	-360	360	-7.6857	1.2885	6.8256	3.3136;
	60	79	-0.0375	1.1068	0	0	0	0	0	0	1	-360	360	5.6183	9.0849	-5.6514	-8.1080;
	60	80	0.0655	2.6441	0	0	0	0	0	0	1	-360	360	1.5506	2.9095	-1.5451	-2.6872;
	60	90	-0.0201	1.5135	0	0	0	0	0	0	1	-360	360	1.0425	14.0726	-1.0734	-11.7414;
	60	92	-0.264	3.7139	0	0	0	0	0	0	1	-360	360	2.8343	5.9206	-2.9222	-4.6828;
	60	94	0.0012	0.0775	0	0	0	0	0	0	1	-360	360	-143.8752	181.0841	144.3717	-149.0165;
	60	95	-0.0855	0.9926	0	0	0	0	0	0	1	-360	360	-47.6068	30.8242	45.4795	-6.1273;
	60	138	-0.3639	1.7936	0	0	0	0	0	0	1	-360	360	-22.3697	0.5339	20.9603	6.4127;
	61	62	-0.0362	-0.2608	0	0	0	0	1.05	0	1	-360	360	-19.2979	0.3058	19.1781	-1.1682;
	61	62	-0.0472	-0.5438	0	0	0	0	1.05	0	1	-360	360	-9.3041	-0.3304	9.2677	-0.0880;
	61	63	0.00812	0.0782	0.1318	1331	0	0	0	0	1	-360	360	57.7159	-8.1238	-57.4981	-6.0963;
	61	63	0.00812	0.0782	0.1318	1331	0	0	0	0	1	-360	360	57.7159	-8.1238	-57.4981	-6.0963;
	61	64	0.00242	0.0318	0.0568	1839	0	0	0	0	1	-360	360	-169.0990	70.8874	169.7641	-69.0991;
	61	65	0.00242	0.0318	0.0568	1208	0	0	0	0	1	-360	360	-168.9695	70.9602	169.6340	-69.1801;
	61	86	0.00132	0.032	0	215	0	0	1.05	0	1	-360	360	130.0955	12.5257	-129.8953	-7.6733;
	61	86	0.0011	0.037	0	250	0	0	1.05	0	1	-360	360	112.4288	12.1318	-112.3040	-7.9317;
	61	86	0.0011	0.037	0	225	0	0	1.05	0	1	-360	360	112.4288	12.1318	-112.3040	-7.9317;
	62	86	0.0036	0.0501	0	0	0	0	0	0	1	-360	360	-17.7723	1.1604	17.7825	-1.0180;
	62	86	0.0013	0.0838	0	0	0	0	0	0	1	-360	360	-10.6736	0.0958	10.6749	-0.0103;
	63	64	0.0147	0.2825	0	0	0	0	0	0	1	-360	360	-34.8863	8.3429	35.0396	-5.3977;
	63	65	0.0147	0.2813	0	0	0	0	0	0	1	-360	360	-35.0182	8.3941	35.1726	-5.4385;
	63	66	0.0056	0.09	0	0	0	0	0	0	1	-360	360	-358.1648	68.5290	364.1987	28.4452;
	63	67	0.0321	0.2785	0	0	0	0	0	0	1	-360	360	-60.6374	19.9130	61.6969	-10.7208;
	63	69	0.0107	0.1571	0	0	0	0	0	0	1	-360	360	-47.1945	14.7312	47.4065	-11.6197;
	63	102	0.0106	0.1583	0	0	0	0	0	0	1	-360	360	-109.1007	81.0447	110.6871	-57.3523;
	63	102	0.0106	0.1576	0	0	0	0	0	0	1	-360	360	-109.5590	81.4355	111.1595	-57.6388;
	63	102	0.0107	0.1604	0	0	0	0	0	0	1	-360	360	-107.6943	79.9579	109.2541	-56.5748;
	63	102	0.0104	0.1542	0	0	0	0	0	0	1	-360	360	-111.9578	83.2508	113.5982	-58.9300;
	63	116	-0.3897	6.8588	0	0	0	0	0	0	1	-360	360	0.7831	1.1660	-0.7894	-1.0563;
	63	117	0.003	0.056	0	0	0	0	0	0	1	-360	360	56.3854	158.0718	-55.7007	-145.2914;
	63	118	-0.0125	0.2425	0	0	0	0	0	0	1	-360	360	28.2608	48.7143	-28.5820	-42.4821;
	63	124	-0.1265	2.022	0	0	0	0	0	0	1	-360	360	-11.9222	6.5678	11.7323	-3.5323;
	64	65	0.0013	0.1674	0	0	0	0	0	0	1	-360	360	0.0226	0.0163	-0.0226	-0.0163;
	64	66	0.0039	0.0684	0	0	0	0	0	0	1	-360	360	-327.3548	25.2840	330.8420	35.8764;
	64	67	0.0233	0.212	0	0	0	0	0	0	1	-360	360	-34.7448	9.0957	34.9941	-6.8275;
	64	69	0.0075	0.1196	0	0	0	0	0	0	1	-360	360	19.8471	0.0959	-19.8226	0.2949;
	64	97	-0.4336	8.2923	0	0	0	0	0	0	1	-360	360	-1.1932	1.7199	1.1775	-1.4185;
	64	124	-0.1041	1.5375	0	0	0	0	0	0	1	-360	360	-9.6703	6.9392	9.5480	-5.1325;
	65	66	0.0039	0.0682	0	0	0	0	0	0	1	-360	360	-328.3564	25.3851	331.8652	35.9737;
	65	67	0.0233	0.2111	0	0	0	0	0	0	1	-360	360	-34.9049	9.1401	35.1565	-6.8604;
	65	69	0.0075	0.1191	0	0	0	0	0	0	1	-360	360	19.8968	0.0693	-19.8721	0.3218;
	65	97	-0.4292	8.2582	0	0	0	0	0	0	1	-360	360	-1.1980	1.7270	1.1822	-1.4244;
	65	124	-0.1032	1.5312	0	0	0	0	0	0	1	-360	360	-9.7100	6.9690	9.5877	-5.1546;
	66	67	0.0081	0.0675	0	0	0	0	0	0	1	-360	360	221.1858	24.4975	-217.9469	2.4928;
	66	68	-2.473	2.472	0	0	0	0	0	0	1	-360	360	12.4766	16.5940	-21.0830	-7.9910;
	66	69	0.0028	0.0381	0	0	0	0	0	0	1	-360	360	656.3838	65.8461	-646.5455	68.0245;
	66	97	-0.1119	2.6432	0	0	0	0	0	0	1	-360	360	3.7421	6.4996	-3.7929	-5.2992;
	66	111	0	0.0264	0	0	0	0	0	0	1	-360	360	-488.4064	504.2733	488.4064	-399.2226;
	66	111	0.00057	0.0266	0	0	0	0	0	0	1	-360	360	-473.7920	510.6345	476.0252	-406.4214;
	66	111	0	0.0273	0	0	0	0	0	0	1	-360	360	-472.3051	487.6489	472.3051	-386.0614;
	66	111	0.00057	0.0264	0	0	0	0	0	0	1	-360	360	-477.2962	514.5786	479.5633	-409.5768;
	66	124	-0.0283	0.4902	0	0	0	0	0	0	1	-360	360	11.1496	26.6275	-11.3400	-23.3292;
	67	68	-3.443	3.7172	0	0	0	0	0	0	1	-360	360	8.1957	7.5202	-11.7811	-3.6493;
	67	69	0.0061	0.055	0	0	0	0	0	0	1	-360	360	177.5036	-25.5790	-175.8523	40.4675;
	67	97	0.0063	0.1166	0	0	0	0	0	0	1	-360	360	-14.4443	116.0006	15.1689	-102.5900;
	67	119	-0.2213	9.3918	0	0	0	0	0	0	1	-360	360	9.3422	5.9194	-9.5701	3.7496;
	67	120	-0.0034	1.7847	0	0	0	0	0	0	1	-360	360	45.3041	22.7854	-45.3777	15.8444;
	67	121	0.0082	1.17	0	0	0	0	0	0	1	-360	360	24.5120	7.0478	-24.4671	-0.6418;
	67	122	-0.0047	0.4473	0	0	0	0	0	0	1	-360	360	-12.4262	22.1063	12.4008	-19.6851;
	67	124	0.0003	0.0065	0	0	0	0	0	0	1	-360	360	-1029.6244	1593.0762	1038.7095	-1396.2315;
	67	125	0.0062	0.2519	0	0	0	0	0	0	1	-360	360	199.5780	77.7446	-197.1840	19.5205;
	67	132	-0.3194	4.3566	0	0	0	0	0	0	1	-360	360	0.6285	1.2570	-0.6338	-1.1846;
	68	69	-0.692	0.6984	0	0	0	0	0	0	1	-360	360	-49.3738	-17.4674	36.3796	30.5818;
	69	70	0.0085	0.3333	0	0	0	0	0	0	1	-360	360	22.3354	32.0288	-22.2277	-27.8040;
	69	71	0.0075	0.312	0	0	0	0	0	0	1	-360	360	24.8028	24.5665	-24.7268	-21.4055;
	69	72	0.0013	0.01	0	0	0	0	0	0	1	-360	360	155.6940	-62.6668	-155.3896	65.0085;
	69	73	0.0098	0.0747	0	0	0	0	0	0	1	-360	360	17.6451	-3.3425	-17.6188	3.5428;
	69	74	0.0135	0.0741	0	0	0	0	0	0	1	-360	360	28.5603	-5.6920	-28.4651	6.2144;
	69	97	-0.0674	1.5849	0	0	0	0	0	0	1	-360	360	-7.4628	9.0371	7.3859	-7.2272;
	69	101	0.0174	0.2188	0	0	0	0	0	0	1	-360	360	-36.6421	33.3485	36.9972	-28.8833;
	69	112	0.0175	0.2201	0	0	0	0	0	0	1	-360	360	-34.7225	33.8929	35.0650	-29.5849;
	69	124	-0.0267	0.3986	0	0	0	0	0	0	1	-360	360	-42.6141	26.8122	42.0514	-18.4124;
	70	71	-0.4891	2.6613	0	0	0	0	0	0	1	-360	360	0.2457	-0.9937	-0.2508	1.0216;
	70	72	-0.0062	0.1216	0	0	0	0	0	0	1	-360	360	-42.6543	-83.9153	42.1047	94.6942;
	70	73	-0.0424	0.9125	0	0	0	0	0	0	1	-360	360	-6.0161	-10.8071	5.9512	12.2036;
	70	74	0.0032	0.9138	0	0	0	0	0	0	1	-360	360	-5.7046	-10.5072	5.7092	11.8139;
	70	101	-0.1248	1.0409	0	0	0	0	0	0	1	-360	360	-13.4961	-4.3905	13.2447	6.4879;
	70	112	-0.1257	1.0471	0	0	0	0	0	0	1	-360	360	-13.1119	-4.1829	12.8737	6.1669;
	71	72	-0.006	0.1138	0	0	0	0	0	0	1	-360	360	-49.6087	-67.3206	49.2112	74.8587;
	71	73	-0.0409	0.8541	0	0	0	0	0	0	1	-360	360	-6.9623	-8.5532	6.9152	9.5373;
	71	74	0.0018	0.8553	0	0	0	0	0	0	1	-360	360	-6.4553	-8.2122	6.4572	9.0962;
	71	101	-0.1592	1.2303	0	0	0	0	0	0	1	-360	360	-12.1189	-1.6491	11.8933	3.3923;
	71	112	-0.1603	1.2377	0	0	0	0	0	0	1	-360	360	-11.7838	-1.4791	11.5696	3.1327;
	72	73	0.0015	0.0275	0	0	0	0	0	0	1	-360	360	-9.5937	13.3468	9.5970	-13.2854;
	72	74	0.0028	0.0274	0	0	0	0	0	0	1	-360	360	21.7082	11.7183	-21.6941	-11.5807;
	72	98	0.0138	0.2417	0	0	0	0	0	0	1	-360	360	-119.7669	84.3021	122.2101	-41.5098;
	72	100	0.1337	1.7384	0	0	0	0	0	0	1	-360	360	-12.6326	7.8419	12.8766	-4.6698;
	72	101	0.0002	0.0802	0	0	0	0	0	0	1	-360	360	-126.6514	90.6867	126.6914	-74.6250;
	72	103	1.0224	7.5945	0	0	0	0	0	0	1	-360	360	-2.8916	2.2042	3.0032	-1.3755;
	72	112	0.0002	0.0806	0	0	0	0	0	0	1	-360	360	-121.4783	92.5671	121.5168	-77.0499;
	73	74	-0.0007	0.0393	0	0	0	0	0	0	1	-360	360	21.4374	1.1736	-21.4400	-1.0232;
	73	75	0.0147	0.2581	0	0	0	0	0	0	1	-360	360	33.6850	-9.3384	-33.5359	11.9565;
	73	81	-0.0122	0.3068	0	0	0	0	0	0	1	-360	360	103.1017	5.7677	-104.1817	21.3915;
	73	82	0.0036	2.0169	0	0	0	0	0	0	1	-360	360	7.0331	7.1213	-7.0301	-5.4439;
	73	91	0.0271	0.5732	0	0	0	0	0	0	1	-360	360	-5.0596	19.0051	5.1466	-17.1645;
	73	96	0.0245	0.4805	0	0	0	0	0	0	1	-360	360	-7.1393	22.7906	7.2553	-20.5153;
	73	101	0.0044	0.6014	0	0	0	0	0	0	1	-360	360	-16.3426	11.5127	16.3572	-9.5175;
	73	105	0.0007	0.0325	0	0	0	0	0	0	1	-360	360	-481.2560	351.3802	483.3194	-255.5778;
	73	105	0.0007	0.0325	0	0	0	0	0	0	1	-360	360	-481.2560	351.3802	483.3194	-255.5778;
	73	105	0.0006	0.0295	0	0	0	0	0	0	1	-360	360	-530.6744	386.4875	532.8211	-280.9373;
	73	108	-0.0182	0.5832	0	0	0	0	0	0	1	-360	360	9.3831	16.2676	-9.4364	-14.5601;
	73	109	0.0524	3.0059	0	0	0	0	0	0	1	-360	360	4.4200	6.8652	-4.3910	-5.2016;
	73	112	0.0043	0.605	0	0	0	0	0	0	1	-360	360	-15.6432	11.7492	15.6569	-9.8268;
	73	121	-0.0268	1.7653	0	0	0	0	0	0	1	-360	360	10.2626	4.1842	-10.2899	-2.3841;
	74	75	0.0215	0.3277	0	0	0	0	0	0	1	-360	360	23.8250	-7.6712	-23.7131	9.3763;
	74	81	-0.0333	0.4631	0	0	0	0	0	0	1	-360	360	66.2415	5.3342	-67.4629	11.6529;
	74	82	-0.0098	1.9859	0	0	0	0	0	0	1	-360	360	6.7186	7.2138	-6.7265	-5.6110;
	74	91	0.0413	0.7511	0	0	0	0	0	0	1	-360	360	-4.7667	14.5778	4.8473	-13.1103;
	74	96	0.435	7.6901	0	0	0	0	0	0	1	-360	360	-0.5374	1.4317	0.5459	-1.2823;
	74	101	0.0344	0.6005	0	0	0	0	0	0	1	-360	360	-17.0580	12.4577	17.1855	-10.2324;
	74	106	0.003	0.0335	0	0	0	0	0	0	1	-360	360	-464.3664	381.7720	473.3711	-281.2198;
	74	106	0.0005	0.0328	0	0	0	0	0	0	1	-360	360	-503.7813	355.1266	505.3590	-251.6290;
	74	108	-0.0187	0.4544	0	0	0	0	0	0	1	-360	360	10.1239	20.7699	-10.2068	-18.7550;
	74	109	0.1004	3.4697	0	0	0	0	0	0	1	-360	360	3.6935	5.8725	-3.6534	-4.4855;
	74	112	0.0345	0.6042	0	0	0	0	0	0	1	-360	360	-16.3353	12.6517	16.4576	-10.5094;
	74	121	-0.0348	1.3757	0	0	0	0	0	0	1	-360	360	12.5343	5.3739	-12.5880	-3.2488;
	75	82	0.0777	1.125	0	0	0	0	0	0	1	-360	360	6.8340	13.9030	-6.6847	-11.7424;
	75	91	-0.2255	3.1442	0	0	0	0	0	0	1	-360	360	-3.9552	4.0961	3.8967	-3.2804;
	75	96	-0.4516	4.631	0	0	0	0	0	0	1	-360	360	-2.8754	2.7066	2.8190	-2.1287;
	75	108	0.0042	0.1049	0	0	0	0	0	0	1	-360	360	-17.3458	111.6070	17.7746	-100.8983;
	75	109	0.1046	1.4465	0	0	0	0	0	0	1	-360	360	5.1458	15.4211	-4.9246	-12.3619;
	75	121	0.0178	0.3172	0	0	0	0	0	0	1	-360	360	33.5776	24.8525	-33.3290	-20.4229;
	76	77	0.0002	0.016	0	0	0	0	0	0	1	-360	360	-127.7134	212.9583	127.8317	-203.4918;
	76	89	0.0011	0.0221	0	0	0	0	0	0	1	-360	360	148.5676	-213.2539	-147.8547	227.5780;
	79	80	0.044	0.0991	0	0	0	0	0	0	1	-360	360	-28.0950	-5.2801	28.4199	6.0119;
	79	90	0.0506	2.471	0	0	0	0	0	0	1	-360	360	-1.4318	4.4005	1.4416	-3.9224;
	79	92	0.0017	0.3032	0	0	0	0	0	0	1	-360	360	18.9461	33.6914	-18.9232	-29.5981;
	79	94	0.1275	1.1195	0	0	0	0	0	0	1	-360	360	-13.9605	5.7173	14.2227	-3.4151;
	79	95	0.305	6.4154	0	0	0	0	0	0	1	-360	360	-6.9687	4.3105	7.1537	-0.4184;
	79	107	0.0786	1.414	0	0	0	0	0	0	1	-360	360	5.5051	2.1856	-5.4802	-1.7374;
	80	90	0.4658	5.8756	0	0	0	0	0	0	1	-360	360	-0.0859	2.1738	0.1052	-1.9305;
	80	92	0.1192	1.5053	0	0	0	0	0	0	1	-360	360	5.9906	7.7550	-5.8904	-6.4901;
	80	94	0.46	2.6475	0	0	0	0	0	0	1	-360	360	-4.8037	3.1625	4.9368	-2.3962;
	82	91	-0.2349	2.4188	0	0	0	0	0	0	1	-360	360	-6.4679	-1.0961	6.3616	2.1911;
	82	108	-0.0742	0.7278	0	0	0	0	0	0	1	-360	360	-10.3760	-5.8387	10.2654	6.9240;
	82	109	-0.0071	0.2634	0	0	0	0	0	0	1	-360	360	-1.8279	22.1625	1.7909	-20.7923;
	82	121	-0.1892	2.2054	0	0	0	0	0	0	1	-360	360	1.4938	-2.9942	-1.5160	3.2539;
	83	89	0.0582	0.3855	0	0	0	0	0	0	1	-360	360	-44.8637	19.8240	46.0240	-12.1383;
	89	103	-1.073	4.1433	0	0	0	0	0	0	1	-360	360	0.4964	1.8451	-0.5309	-1.7120;
	90	92	-0.138	8.2959	0	0	0	0	0	0	1	-360	360	1.0300	-0.0044	-1.0317	0.1019;
	90	94	0.0689	1.0717	0	0	0	0	0	0	1	-360	360	-10.7272	-4.9140	10.8335	6.5672;
	91	96	-0.1224	4.2463	0	0	0	0	0	0	1	-360	360	-0.1231	-0.0032	0.1230	0.0039;
	91	108	-0.1078	0.6994	0	0	0	0	0	0	1	-360	360	11.9637	0.3411	-12.1182	0.6608;
	91	109	-0.2699	4.2634	0	0	0	0	0	0	1	-360	360	3.2667	2.4753	-3.3121	-1.7591;
	91	121	-0.2924	2.121	0	0	0	0	0	0	1	-360	360	9.3404	0.0118	-9.5955	1.8386;
	92	94	0.2883	3.7717	0	0	0	0	0	0	1	-360	360	-5.4291	-0.6384	5.5233	1.8713;
	92	107	0.0176	3.0227	0	0	0	0	0	0	1	-360	360	0.4517	-2.0540	-0.4508	2.2002;
	94	95	0.0534	0.996	0	0	0	0	0	0	1	-360	360	-30.7114	17.3599	31.3502	-5.4454;
	94	138	-0.1125	1.8385	0	0	0	0	0	0	1	-360	360	-13.3660	-4.4970	13.1509	8.0113;
	95	138	-0.0732	0.6389	0	0	0	0	0	0	1	-360	360	21.9629	-24.2375	-22.8881	32.3131;
	96	108	-0.8215	6.1143	0	0	0	0	0	0	1	-360	360	1.4567	0.0312	-1.4742	0.0986;
	97	124	-0.3793	1.9557	0	0	0	0	0	0	1	-360	360	-1.7480	-1.9252	1.7206	2.0666;
	98	100	-0.0063	0.3269	0	0	0	0	0	0	1	-360	360	23.7472	-11.6775	-23.7941	14.1105;
	98	103	0.0544	1.4358	0	0	0	0	0	0	1	-360	360	4.2499	-2.0490	-4.2371	2.3887;
	100	103	-0.0249	0.4891	0	0	0	0	0	0	1	-360	360	-3.0757	2.7667	3.0716	-2.6853;
	101	112	-0.0138	0.361	0	0	0	0	0	0	1	-360	360	0.8857	0.6109	-0.8858	-0.6070;
	102	117	-0.0003	0.019	0	0	0	0	0	0	1	-360	360	1011.5209	50.5258	-1014.4844	137.1625;
	102	118	-0.0267	0.3222	0	0	0	0	0	0	1	-360	360	70.6108	16.9211	-71.9665	-0.5616;
	108	109	-0.0825	1.2713	0	0	0	0	0	0	1	-360	360	5.0821	8.4436	-5.1601	-7.2428;
	108	121	-0.0009	0.0431	0	0	0	0	0	0	1	-360	360	265.4515	-55.5090	-266.0953	86.3380;
	109	121	-0.1881	3.8499	0	0	0	0	0	0	1	-360	360	0.9046	-3.0578	-0.9275	3.5254;
	115	116	0.0008	0.0291	0	0	0	0	0	0	1	-360	360	82.6603	20.2530	-82.6077	-18.3376;
	115	117	-0.0092	0.2222	0	0	0	0	0	0	1	-360	360	-2.8020	8.8599	2.7948	-8.6856;
	115	118	-0.0044	0.0677	0	0	0	0	0	0	1	-360	360	55.3667	65.1636	-55.6590	-60.6652;
	115	143	-0.1017	0.4924	0	0	0	0	0	0	1	-360	360	-7.9408	2.3214	7.8775	-2.0151;
	116	117	0.00191	0.0288	0	0	0	0	0	0	1	-360	360	-96.4955	54.8236	96.7118	-51.5627;
	116	118	-0.001	0.044	0	0	0	0	0	0	1	-360	360	37.1115	79.3847	-37.1821	-76.2788;
	116	143	-0.2187	1.2896	0	0	0	0	0	0	1	-360	360	-4.7031	0.3028	4.6585	-0.0395;
	117	118	0.0008	0.0081	0	0	0	0	0	0	1	-360	360	574.0926	209.5486	-571.2762	-181.0323;
	117	143	-0.0834	0.6854	0	0	0	0	0	0	1	-360	360	-4.4120	-0.6221	4.3964	0.7504;
	118	131	-0.8925	6.2385	0	0	0	0	0	0	1	-360	360	1.9355	-0.1320	-1.9684	0.3621;
	118	132	-0.6967	8.143	0	0	0	0	0	0	1	-360	360	-2.3344	-0.3781	2.2962	0.8245;
	118	143	-0.0011	0.0231	0	0	0	0	0	0	1	-360	360	-320.0614	-95.3570	318.8587	120.6133;
	119	120	0.001	0.0236	0	0	0	0	0	0	1	-360	360	-603.2082	-19.6377	606.7578	103.4075;
	119	121	-0.011	0.2901	0	0	0	0	0	0	1	-360	360	-233.2753	61.8971	227.0314	102.7729;
	119	122	-0.6013	5.8941	0	0	0	0	0	0	1	-360	360	-15.0074	6.4238	13.4458	8.8826;
	119	124	-0.2618	3.394	0	0	0	0	0	0	1	-360	360	-26.1205	12.1949	24.0005	15.2900;
	119	125	-0.0082	0.2595	0	0	0	0	0	0	1	-360	360	-178.8069	38.4895	176.1337	46.1081;
	119	126	0.00153	0.0179	0	0	0	0	0	0	1	-360	360	1476.3204	-159.6729	-1443.4440	544.3055;
	119	127	-0.1172	1.3932	0	0	0	0	0	0	1	-360	360	-28.9449	3.8307	27.9713	7.7432;
	119	128	-0.0054	0.0516	0	0	0	0	0	0	1	-360	360	-680.9380	23.0308	656.5101	210.3916;
	119	129	0.0034	0.0642	0	0	0	0	0	0	1	-360	360	369.3083	75.9733	-364.5981	12.9663;
	119	130	-0.0022	0.0163	0	0	0	0	0	0	1	-360	360	-818.6115	-327.0331	801.9518	450.4663;
	119	131	-0.0044	0.0242	0	0	0	0	0	0	1	-360	360	-2545.6987	208.7376	2265.9565	1329.8443;
	119	132	-0.4137	2.4027	0	0	0	0	0	0	1	-360	360	-36.3362	9.5087	30.6488	23.5226;
	119	144	-0.8511	3.8358	0	0	0	0	0	0	1	-360	360	-21.5973	5.3315	17.4929	13.1666;
	120	121	0.0009	0.0779	0	0	0	0	0	0	1	-360	360	-720.6755	194.4888	725.3741	212.1964;
	120	122	-0.061	0.9305	0	0	0	0	0	0	1	-360	360	-85.9156	35.9607	80.9578	39.6668;
	120	123	-0.0466	0.5011	0	0	0	0	0	0	1	-360	360	-67.2075	7.8626	65.2084	13.6342;
	120	124	-0.0259	0.4722	0	0	0	0	0	0	1	-360	360	-171.0326	75.1951	162.5619	79.2386;
	120	125	-0.0002	0.0555	0	0	0	0	0	0	1	-360	360	-611.9601	146.1930	611.2183	59.6582;
	120	127	0.002	0.1818	0	0	0	0	0	0	1	-360	360	-149.6798	36.5355	150.1247	3.9002;
	120	128	-0.0029	0.0743	0	0	0	0	0	0	1	-360	360	-295.0475	30.3790	292.6571	30.8650;
	120	129	-0.0229	0.4911	0	0	0	0	0	0	1	-360	360	74.1189	28.8948	-75.4767	0.2246;
	120	130	-0.1674	1.0675	0	0	0	0	0	0	1	-360	360	0.8073	-2.1848	-0.8158	2.2391;
	120	131	-0.0687	0.4516	0	0	0	0	0	0	1	-360	360	-110.4563	7.6903	102.5650	44.1833;
	120	132	-0.0255	0.4566	0	0	0	0	0	0	1	-360	360	-167.9646	55.8186	160.4798	78.2036;
	121	122	-0.0108	0.483	0	0	0	0	0	0	1	-360	360	-65.1981	18.4217	64.7450	1.8416;
	121	123	-0.1712	1.9482	0	0	0	0	0	0	1	-360	360	11.8665	3.9775	-12.1115	-1.1885;
	121	124	-0.006	0.3494	0	0	0	0	0	0	1	-360	360	-94.5212	27.3057	93.9903	3.6064;
	121	125	0	0.0124	0	0	0	0	0	0	1	-360	360	1826.3117	515.6976	-1826.3117	-107.5430;
	121	127	-0.0204	0.8338	0	0	0	0	0	0	1	-360	360	34.9864	10.7711	-35.2363	-0.5588;
	121	128	-0.0278	0.3095	0	0	0	0	0	0	1	-360	360	112.3593	37.0787	-115.9163	2.5224;
	121	129	-0.4545	4.254	0	0	0	0	0	0	1	-360	360	17.8199	13.0777	-19.8494	5.9184;
	121	131	-0.2183	1.5066	0	0	0	0	0	0	1	-360	360	5.0253	1.1928	-5.0785	-0.8255;
	121	132	-0.1308	1.3815	0	0	0	0	0	0	1	-360	360	-17.7464	0.6307	17.3695	3.3509;
	122	123	-0.584	4.8609	0	0	0	0	0	0	1	-360	360	10.1195	3.7282	-10.7987	1.9252;
	122	124	-0.0009	0.0552	0	0	0	0	0	0	1	-360	360	-28.5655	-0.2405	28.5581	0.6909;
	122	125	-0.0069	0.1583	0	0	0	0	0	0	1	-360	360	312.5889	92.5925	-319.9225	75.6569;
	122	131	-0.2433	1.935	0	0	0	0	0	0	1	-360	360	19.2562	4.0071	-20.1974	3.4786;
	122	132	-0.0187	0.2572	0	0	0	0	0	0	1	-360	360	32.3765	-12.7532	-32.6030	15.8676;
	122	133	-0.098	0.9821	0	0	0	0	0	0	1	-360	360	17.6623	-6.3156	-18.0071	9.7711;
	122	143	-0.0312	0.4888	0	0	0	0	0	0	1	-360	360	39.7937	-0.0144	-40.2878	7.7547;
	123	124	-0.223	1.967	0	0	0	0	0	0	1	-360	360	-27.4129	5.2734	25.7331	9.5434;
	123	125	-0.0821	0.6062	0	0	0	0	0	0	1	-360	360	-1.7272	1.2385	1.7236	-1.2121;
	123	131	-0.1783	1.2535	0	0	0	0	0	0	1	-360	360	-12.5442	-2.8069	12.2594	4.8090;
	123	132	-0.1355	1.2041	0	0	0	0	0	0	1	-360	360	-38.6875	2.3724	36.7197	15.1137;
	124	125	-0.0017	0.0949	0	0	0	0	0	0	1	-360	360	539.9435	149.8394	-545.2813	148.1379;
	124	128	-1.153	8.2513	0	0	0	0	0	0	1	-360	360	7.1551	3.3063	-7.8715	1.8201;
	124	131	-0.1062	0.8185	0	0	0	0	0	0	1	-360	360	47.1976	10.6245	-49.6832	8.5324;
	124	132	-0.0094	0.1612	0	0	0	0	0	0	1	-360	360	61.4811	-19.6474	-61.8727	26.3629;
	124	133	-0.0342	1.1798	0	0	0	0	0	0	1	-360	360	15.7938	-6.0316	-15.8916	9.4038;
	124	143	-0.0078	0.7607	0	0	0	0	0	0	1	-360	360	27.6749	-0.9378	-27.7348	6.7707;
	125	127	-0.0791	0.9851	0	0	0	0	0	0	1	-360	360	6.7669	0.9159	-6.8032	-0.4642;
	125	128	-0.062	0.5991	0	0	0	0	0	0	1	-360	360	21.2825	0.7326	-21.5590	1.9392;
	125	129	-0.4217	3.9702	0	0	0	0	0	0	1	-360	360	15.2800	8.2980	-16.5339	3.5066;
	125	130	-1.974	8.4854	0	0	0	0	0	0	1	-360	360	3.9049	1.0345	-4.2217	0.3273;
	125	131	-0.1251	0.6939	0	0	0	0	0	0	1	-360	360	-20.5370	-7.0104	19.9576	10.2239;
	125	132	-0.0536	0.5086	0	0	0	0	0	0	1	-360	360	-88.8691	3.8665	84.6982	35.7111;
	127	128	-0.0026	0.124	0	0	0	0	0	0	1	-360	360	48.2627	-12.2506	-48.3263	15.2827;
	127	129	-0.0392	1.1082	0	0	0	0	0	0	1	-360	360	52.4192	21.9176	-53.6672	13.3638;
	128	129	-0.001	0.0207	0	0	0	0	0	0	1	-360	360	2614.0375	1148.2519	-2691.6263	457.8365;
	128	130	-1.1	2.9924	0	0	0	0	0	0	1	-360	360	6.8102	2.2195	-7.3473	-0.7583;
	128	131	-1.559	4.0869	0	0	0	0	0	0	1	-360	360	-6.2242	-1.8637	5.5978	3.5058;
	130	131	-0.0027	0.0154	0	0	0	0	0	0	1	-360	360	-3364.5472	323.9511	3088.4420	1250.8713;
	130	132	-0.6509	3.031	0	0	0	0	0	0	1	-360	360	-26.6577	5.2732	22.3556	14.7600;
	130	144	-0.7532	3.0664	0	0	0	0	0	0	1	-360	360	-24.8687	5.3104	20.5092	12.4376;
	131	132	-0.0032	0.0411	0	0	0	0	0	0	1	-360	360	-780.0267	55.7155	762.0030	175.7762;
	131	133	-1.077	5.5285	0	0	0	0	0	0	1	-360	360	-4.2834	-1.2759	4.0853	2.2930;
	131	143	-0.0588	0.4055	0	0	0	0	0	0	1	-360	360	-49.0161	0.2850	47.7149	8.6882;
	131	144	-0.0022	0.0151	0	0	0	0	0	0	1	-360	360	-1908.6022	290.4206	1833.0827	227.9177;
	132	133	-0.0916	0.8229	0	0	0	0	0	0	1	-360	360	11.0342	-4.7310	-11.1558	5.8235;
	132	143	-0.0049	0.0965	0	0	0	0	0	0	1	-360	360	123.2500	25.1224	-123.9640	-11.0605;
	132	144	-0.1108	0.9827	0	0	0	0	0	0	1	-360	360	1.8987	5.0144	-1.9281	-4.7542;
	133	143	-0.36	2.6309	0	0	0	0	0	0	1	-360	360	1.1689	2.7293	-1.1955	-2.5349;
	134	131	-0.4042	0.9144	0	0	0	0	0	0	1	-360	360	21.9269	13.2060	-24.3566	-7.7093;
	134	136	-0.0698	0.6428	0	0	0	0	0	0	1	-360	360	-45.5866	-5.1240	44.2390	17.5349;
	134	139	-0.0353	0.166	0	0	0	0	0	0	1	-360	360	-3.3955	1.8005	3.3908	-1.7780;
	134	141	-0.023	0.1179	0	0	0	0	0	0	1	-360	360	-25.2353	-12.4817	25.0680	13.3391;
	134	142	-0.0263	0.1167	0	0	0	0	0	0	1	-360	360	19.7710	-94.8439	-22.0359	104.8938;
	134	144	-0.0145	0.0435	0	0	0	0	0	0	1	-360	360	-118.6960	75.0689	116.0720	-67.1969;
	134	145	-0.0034	0.0216	0	0	0	0	0	0	1	-360	360	-1378.1035	-62.4936	1318.7380	439.6388;
	135	95	-0.3448	3.4845	0	0	0	0	0	0	1	-360	360	4.4801	6.8428	-4.6683	-4.9406;
	135	136	-0.0031	0.0178	0	0	0	0	0	0	1	-360	360	2598.0920	1215.8380	-2806.2431	-20.6473;
	135	138	-0.0084	0.1729	0	0	0	0	0	0	1	-360	360	207.0948	36.9942	-210.1284	25.4482;
	135	141	-0.129	0.6993	0	0	0	0	0	0	1	-360	360	91.7311	61.1024	-104.5191	8.2205;
	136	115	-0.012	0.0855	0	0	0	0	0	0	1	-360	360	428.6851	183.3528	-450.9265	-24.8828;
	136	116	-1.2	4.2655	0	0	0	0	0	0	1	-360	360	8.1597	5.1116	-9.1083	-1.7400;
	136	117	-2.969	9.0875	0	0	0	0	0	0	1	-360	360	3.3421	2.4428	-3.7759	-1.1151;
	136	118	-0.5749	1.6206	0	0	0	0	0	0	1	-360	360	19.5225	16.7988	-22.7739	-7.6335;
	136	138	-0.1581	0.5485	0	0	0	0	0	0	1	-360	360	-25.8352	-11.5829	24.7546	15.3316;
	136	139	-0.0059	0.0293	0	0	0	0	0	0	1	-360	360	896.7869	469.5450	-948.3325	-213.5644;
	136	140	-2.403	9.378	0	0	0	0	0	0	1	-360	360	5.2875	3.4193	-6.0998	-0.2491;
	136	141	-0.0026	0.0175	0	0	0	0	0	0	1	-360	360	1436.0833	579.2842	-1489.2388	-221.5065;
	136	142	-0.0467	0.1709	0	0	0	0	0	0	1	-360	360	182.8068	29.6639	-196.4630	20.3116;
	136	143	-1.762	3.4549	0	0	0	0	0	0	1	-360	360	6.6440	6.6093	-7.9633	-4.0223;
	136	145	-0.0049	0.0539	0	0	0	0	0	0	1	-360	360	-28.7623	59.8015	28.5784	-57.7779;
	137	139	-0.0183	0.0936	0	0	0	0	0	0	1	-360	360	-1130.8786	436.5632	893.3424	778.3757;
	137	140	-2.229	8.0228	0	0	0	0	0	0	1	-360	360	-10.5580	1.6040	8.3126	6.4780;
	137	145	-0.0852	0.4071	0	0	0	0	0	0	1	-360	360	-301.4793	156.6604	214.6066	258.4323;
	139	140	-0.0054	0.0239	0	0	0	0	0	0	1	-360	360	1142.6676	383.1196	-1215.1837	-62.1689;
	139	141	-0.0083	0.046	0	0	0	0	0	0	1	-360	360	-52.7997	-38.1699	52.4740	39.9752;
	139	142	-0.3102	1.267	0	0	0	0	0	0	1	-360	360	2.4535	-8.8385	-2.6948	9.8241;
	139	145	-0.0009	0.008	0	0	0	0	0	0	1	-360	360	-3665.0165	-66.0057	3553.2096	1059.8447;
	140	145	-0.1088	0.48	0	0	0	0	0	0	1	-360	360	-120.4066	5.5209	106.0694	57.7313;
	141	115	-0.0007	0.0131	0	0	0	0	0	0	1	-360	360	945.8224	136.7352	-951.5880	-28.8363;
	141	116	-0.1568	0.7448	0	0	0	0	0	0	1	-360	360	18.4648	6.6452	-19.0094	-4.0583;
	141	117	-0.3702	1.382	0	0	0	0	0	0	1	-360	360	7.3598	4.1835	-7.5991	-3.2902;
	141	118	-0.0414	0.1439	0	0	0	0	0	0	1	-360	360	92.3233	66.4783	-97.1559	-49.6811;
	141	131	-0.2331	0.8129	0	0	0	0	0	0	1	-360	360	31.0651	15.0526	-33.5702	-6.3165;
	141	132	-1.628	7.0936	0	0	0	0	0	0	1	-360	360	-0.5191	0.0525	0.5151	-0.0350;
	141	142	-0.0018	0.0105	0	0	0	0	0	0	1	-360	360	486.0516	-935.0093	-504.0788	1040.1683;
	141	143	-0.0702	0.1778	0	0	0	0	0	0	1	-360	360	36.7414	29.4546	-38.1453	-25.8988;
	141	144	-0.0756	0.2441	0	0	0	0	0	0	1	-360	360	-10.5519	20.9086	10.1779	-19.7011;
	141	145	-0.0038	0.0358	0	0	0	0	0	0	1	-360	360	-757.6539	16.2757	737.9719	169.1494;
	142	115	-0.0166	0.1563	0	0	0	0	0	0	1	-360	360	56.6701	87.1574	-58.0150	-74.4944;
	142	116	-0.6916	2.6302	0	0	0	0	0	0	1	-360	360	3.3006	6.0480	-3.5467	-5.1120;
	142	117	-0.5596	2.2284	0	0	0	0	0	0	1	-360	360	2.4494	7.2653	-2.6960	-6.2834;
	142	118	-0.0185	0.1037	0	0	0	0	0	0	1	-360	360	104.6271	188.6975	-111.0830	-152.5092;
	142	119	-0.2742	1.8611	0	0	0	0	0	0	1	-360	360	41.8615	36.3384	-48.1775	6.5311;
	142	120	-0.6043	7.353	0	0	0	0	0	0	1	-360	360	10.0687	6.6992	-10.7313	1.3624;
	142	122	-0.2589	2.1732	0	0	0	0	0	0	1	-360	360	-8.2686	7.7626	8.0190	-5.6672;
	142	124	-0.1736	2.1347	0	0	0	0	0	0	1	-360	360	-8.9953	8.2985	8.8004	-5.9017;
	142	125	-1.09	8.616	0	0	0	0	0	0	1	-360	360	4.5887	3.5182	-4.8618	-1.3588;
	142	130	-0.3608	1.8618	0	0	0	0	0	0	1	-360	360	37.4150	29.5149	-43.5571	2.1799;
	142	131	-0.0013	0.0157	0	0	0	0	0	0	1	-360	360	1702.2889	1186.7212	-1744.2515	-679.9414;
	142	132	-0.0055	0.081	0	0	0	0	0	0	1	-360	360	-101.1171	157.0196	99.6790	-135.8411;
	142	133	-1.636	9.1725	0	0	0	0	0	0	1	-360	360	0.0648	0.8037	-0.0727	-0.7590;
	142	143	-0.0038	0.0187	0	0	0	0	0	0	1	-360	360	161.7236	807.0822	-181.0234	-712.1070;
	142	144	-0.002	0.0229	0	0	0	0	0	0	1	-360	360	-257.0074	778.0088	246.9424	-662.7641;
	142	145	-0.0738	0.438	0	0	0	0	0	0	1	-360	360	-79.3875	24.2026	75.5769	-1.5868;
	143	144	-0.4863	2.3282	0	0	0	0	0	0	1	-360	360	-4.0870	0.8258	4.0075	-0.4450;
	144	145	-0.3835	1.2052	0	0	0	0	0	0	1	-360	360	-17.9685	-7.8284	16.4864	12.4861;
];

%%-----  OPF Data  -----%%
%% generator cost data
%	1	startup	shutdown	n	x1	y1	...	xn	yn
%	2	startup	shutdown	n	c(n-1)	...	c0
mpc.gencost = [
	2	0	0	3	0.196078431	20	0;
	2	0	0	3	0.0067294751	20	0;
	2	0	0	3	0.0399680256	20	0;
	2	0	0	3	0.212765957	20	0;
	2	0	0	3	0.142857143	20	0;
	2	0	0	3	0.014858841	20	0;
	2	0	0	3	0.454545455	20	0;
	2	0	0	3	0.15625	20	0;
	2	0	0	3	0.0142857143	20	0;
	2	0	0	3	0.0333333333	20	0;
	2	0	0	3	0.0763358779	20	0;
	2	0	0	3	0.166666667	20	0;
	2	0	0	3	0.0714285714	20	0;
	2	0	0	3	0.0234741784	20	0;
	2	0	0	3	0.05	20	0;
	2	0	0	3	0.0588235294	20	0;
	2	0	0	3	0.0321646832	20	0;
	2	0	0	3	0.00490196078	20	0;
	2	0	0	3	0.0740740741	20	0;
	2	0	0	3	0.005	20	0;
	2	0	0	3	0.00617283951	20	0;
	2	0	0	3	0.00925925926	20	0;
	2	0	0	3	0.0125	20	0;
	2	0	0	3	0.192307692	20	0;
	2	0	0	3	0.0142857143	20	0;
	2	0	0	3	0.005	20	0;
	2	0	0	3	0.0333333333	20	0;
	2	0	0	3	0.00401123145	20	0;
	2	0	0	3	0.00368595651	20	0;
	2	0	0	3	0.00380662352	20	0;
	2	0	0	3	0.00236966825	20	0;
	2	0	0	3	0.0011168193	20	0;
	2	0	0	3	0.00333667	20	0;
	2	0	0	3	0.00991080278	20	0;
	2	0	0	3	0.00332778702	20	0;
	2	0	0	3	0.000771426367	20	0;
	2	0	0	3	0.00168435237	20	0;
	2	0	0	3	0.00035335689	20	0;
	2	0	0	3	0.00323101777	20	0;
	2	0	0	3	0.000484824978	20	0;
	2	0	0	3	0.00167168171	20	0;
	2	0	0	3	0.000192492782	20	0;
	2	0	0	3	0.00082863772	20	0;
	2	0	0	3	0.000175951015	20	0;
	2	0	0	3	0.000432469835	20	0;
	2	0	0	3	0.000263775685	20	0;
	2	0	0	3	0.000409014684	20	0;
	2	0	0	3	0.00190331176	20	0;
	2	0	0	3	0.000877423883	20	0;
	2	0	0	3	0.000708284521	20	0;
];

%% bus names
mpc.bus_name = {
	'BRU   1A 500';
	'BRU   5A 500';
	'BRU  12A25.7';
	'BRU  13B25.7';
	'BRU  14C25.7';
	'MIL  15A 500';
	'NAN  17A 500';
	'NAN  19A 100';
	'TRA  20A 500';
	'TRA  21B 500';
	'TRA  22A 100';
	'CLA  23A 500';
	'CLA  25A 100';
	'ESS  26A 500';
	'ESS  29A 100';
	'ESS  30B 100';
	'HAN  31A 500';
	'HAN  33A 100';
	'HAN  34B 100';
	'HAN  35C 100';
	'HAN  36D 100';
	'POR  37A 500';
	'POR  38A 100';
	'PIN  39A 500';
	'CHE  41A 500';
	'CHE  42A 100';
	'LEN  43A 500';
	'LEN  46A 100';
	'LEN  47B 100';
	'POR  552 100';
	'CHE  56B 100';
	'TRA  57A 100';
	'BRU 101A 220';
	'BRU 110A 220';
	'BRU 111B 220';
	'DOU 112A 220';
	'OWE 113A 220';
	'OWE 114B 220';
	'WIN 117A 220';
	'WIN 118B 220';
	'SEA 119A 100';
	'SEA 120B 100';
	'SEA 121A 220';
	'SEA 122B 220';
	'STR 125A 220';
	'STR 126B 220';
	'HAN 127A 100';
	'HAN 128B 100';
	'HAN 129A 220';
	'HAN 130B 220';
	'ORA 131A 220';
	'FER 134A 100';
	'FER 135B 100';
	'SCH 138A 100';
	'SCH 139B 100';
	'ALL 142A 100';
	'ALL 143B 100';
	'ESS 144A 100';
	'HAN 163A 100';
	'LAK 187A 100';
	'DET 196A 220';
	'DET 198A 100';
	'BUC 205A 100';
	'GAL 259A 100';
	'GAL 260B 100';
	'NAN 269A 100';
	'BEC 287A 100';
	'BUR 317A 100';
	'TRA 318A 100';
	'MAN 344A 100';
	'MAN 347A 100';
	'CLA 364A 100';
	'CHE 424A 100';
	'CHE 425B 100';
	'LEN 520A 100';
	'PIN 539A 100';
	'DUM 5441 100';
	'POR 545A 100';
	'MCK1032  100';
	'HIG1036S 100';
	'SCA11548 100';
	'CHF1262  100';
	'POR1430T 100';
	'WIN1573A 100';
	'STR1574A 100';
	'DET15765 100';
	'OWE16165 100';
	'OWN16284 100';
	'CAN1751T 100';
	'AGU1752T 100';
	'ARN1754T 100';
	'AUB17551 100';
	'BRU1771318.5';
	'CAM17761 100';
	'CAR1777T 100';
	'CHE17801 100';
	'DEC1782T 100';
	'DES17831 100';
	'DOU1793T  18';
	'HOL17961 100';
	'LAK18068 100';
	'LAM18071 100';
	'LON1815T 100';
	'NAN18205 100';
	'PIC18252 100';
	'PIC18263 100';
	'RED1830T 100';
	'SAU18311 100';
	'STW18435 100';
	'BRU1853118.5';
	'NAN18563 100';
	'LAK18637 100';
	'BRU18705  24';
	'BRU18736  24';
	'18C2007E 100';
	'18H2016O 100';
	'19B2051R 100';
	'19M20792 100';
	'AK 2152  100';
	'ALB21531 100';
	'CHA2184G 100';
	'DUN22033 100';
	'GOU2246G 100';
	'HNT2264G 100';
	'MIL2296G 100';
	'SHO23701 100';
	'BEA24522 100';
	'BR.24593 100';
	'NOR25181 100';
	'BER26011 100';
	'CLV2609F 100';
	'ERI2616. 100';
	'WAR2645  100';
	'ALL2651  100';
	'BD 26524 100';
	'CAL26541 100';
	'CAP2655  100';
	'PIN26637 100';
	'SPP2666N 100';
	'SPP2669H 100';
	'VER2674N 100';
	'01A2679R 100';
	'03D2699E 100';
	'3BR2719  100';
	'8BO2739  100';
};
